Circuit: * D:\LT SPICE\CMOS INVERTER.asc

Error on line 5 : v2 input 0 v
	 Unknown parameter "v"
Instance "m1": Length shorter than recommended for a level 1 MOSFET.
Instance "m2": Length shorter than recommended for a level 1 MOSFET.
v2: Missing value, assumed 0V @ DC

Date: Mon Nov  6 04:25:51 2023
Total elapsed time: 0.188 seconds.

tnom = 27
temp = 27
method = trap
totiter = 1010
traniter = 0
tranpoints = 0
accept = 0
rejected = 0
matrix size = 9
fillins = 0
solver = Normal
Avg thread counts: 5.0/0.0/8.1/5.0
Matrix Compiler1: 458 bytes object code size  0.4/0.3/[0.3]
Matrix Compiler2: off  [0.3]/0.3/0.3

