Circuit: * D:\LT SPICE\CMOS INVERTER_DC sweep Variable Width.asc

Error on line 5 : v2 input 0 v
	 Unknown parameter "v"
Instance "m1": Length shorter than recommended for a level 1 MOSFET.
Instance "m1": Width narrower than recommended for a level 1 MOSFET.
Instance "m2": Length shorter than recommended for a level 1 MOSFET.
v2: Missing value, assumed 0V @ DC
.step x=1e-06
.step x=1.1e-05
.step x=2.1e-05
.step x=3.1e-05
.step x=4.1e-05
.step x=5e-05

Date: Mon Jan 15 16:43:43 2024
Total elapsed time: 0.521 seconds.

tnom = 27
temp = 27
method = trap
totiter = 1009
traniter = 0
tranpoints = 0
accept = 0
rejected = 0
matrix size = 9
fillins = 0
solver = Normal
Avg thread counts: 5.0/0.0/8.1/5.0
Matrix Compiler1: 458 bytes object code size  0.4/0.3/[0.3]
Matrix Compiler2: 751 bytes object code size  0.3/0.4/[0.2]

